LAMMPS (29 Aug 2024 - Development - patch_29Aug2024-566-g224468d946)
# eq: init
units real
atom_style full

dimension 3
boundary p p p

read_data system.data
Reading data file ...
  orthogonal box = (0 0 0) to (80 80 80)
  reading atom labelmap ...
  reading bond labelmap ...
  reading angle labelmap ...
  reading dihedral labelmap ...
  reading atoms ...
  4720 atoms
  scanning bonds ...
  scanning angles ...
  scanning dihedrals ...
  orthogonal box = (0 0 0) to (80 80 80)
  reading bonds ...
  4460 bonds
  reading angles ...
  7590 angles
  reading dihedrals ...
  12500 dihedrals
Finding 1-2 1-3 1-4 neighbors ...
     4 = max # of 1-2 neighbors
     9 = max # of 1-3 neighbors
    18 = max # of 1-4 neighbors
    22 = max # of special neighbors
include system.ff
# atom_style full
bond_style harmonic
bond_coeff ho-oh 371.4 0.973
bond_coeff c3-h1 330.6 1.0969
bond_coeff c3-oh 316.7 1.4233
bond_coeff c3-c3 300.9 1.5375
bond_coeff c3-os 308.6 1.4316
bond_coeff c3-hc 330.6 1.0969

angle_style harmonic
angle_coeff h1-c3-oh 50.9 110.260047369346
angle_coeff c3-oh-ho 47.4 107.26004608361897
angle_coeff c3-c3-h1 46.4 109.56004706934303
angle_coeff h1-c3-h1 39.2 108.46004659790978
angle_coeff h1-c3-os 50.8 109.780046819855
angle_coeff c3-c3-oh 67.5 110.19004739664149
angle_coeff c3-c3-os 68.0 107.97004621602035
angle_coeff c3-os-c3 62.7 112.48004797700933
angle_coeff c3-c3-hc 46.3 109.80004705760963
angle_coeff hc-c3-hc 39.4 107.5800458769885
angle_coeff c3-c3-c3 62.9 111.51004761858671

dihedral_style charmmfsw
dihedral_coeff oh-c3-c3-h1 0.25 1 0 0.5
dihedral_coeff c3-c3-oh-ho 0.25 1 0 0.5
dihedral_coeff h1-c3-oh-ho 0.166666667 3 0 0.5
dihedral_coeff h1-c3-os-c3 0.383333333 3 0 0.5
dihedral_coeff h1-c3-c3-os 0.25 1 0 0.5
dihedral_coeff h1-c3-c3-h1 0.155555556 3 0 0.5
dihedral_coeff os-c3-c3-h1 0.25 1 0 0.5
dihedral_coeff h1-c3-c3-oh 0.25 1 0 0.5
dihedral_coeff oh-c3-c3-os 1.175 2 0 0.5
dihedral_coeff c3-c3-os-c3 0.1 2 3 0.5
dihedral_coeff os-c3-c3-oh 1.175 2 0 0.5
dihedral_coeff c3-c3-c3-h1 0.155555556 3 0 0.5
dihedral_coeff c3-c3-c3-hc 0.16 3 0 0.5
dihedral_coeff hc-c3-c3-c3 0.16 3 0 0.5
dihedral_coeff hc-c3-c3-hc 0.15 3 0 0.5
dihedral_coeff hc-c3-c3-os 0.25 1 0 0.5
dihedral_coeff hc-c3-c3-h1 0.155555556 3 0 0.5
dihedral_coeff c3-c3-c3-os 0.155555556 3 0 0.5
dihedral_coeff c3-c3-c3-c3 0.2 1 3 0.5

pair_style lj/charmmfsw/coul/charmmfsh 2.5 9.0
pair_coeff oh oh 0.210 3.066
pair_coeff c3 c3 0.109 3.400
pair_coeff ho ho 0.000 0.891
pair_coeff h1 h1 0.016 2.471
pair_coeff os os 0.170 3.000
pair_coeff hc hc 0.016 2.650

minimize 1e-4 1e-4 1000 1000

CITE-CITE-CITE-CITE-CITE-CITE-CITE-CITE-CITE-CITE-CITE-CITE-CITE

Your simulation uses code contributions which should be cited:

- Type Label Framework: https://doi.org/10.1021/acs.jpcb.3c08419

@Article{Gissinger24,
 author = {Jacob R. Gissinger, Ilia Nikiforov, Yaser Afshar, Brendon Waters, Moon-ki Choi, Daniel S. Karls, Alexander Stukowski, Wonpil Im, Hendrik Heinz, Axel Kohlmeyer, and Ellad B. Tadmor},
 title = {Type Label Framework for Bonded Force Fields in LAMMPS},
 journal = {J. Phys. Chem. B},
 year =    2024,
 volume =  128,
 number =  13,
 pages =   {3282--3297}
}

CITE-CITE-CITE-CITE-CITE-CITE-CITE-CITE-CITE-CITE-CITE-CITE-CITE

Generated 15 of 15 mixed pair_coeff terms from arithmetic mixing rule
Step          Temp          E_pair         E_mol          TotEng         Press
0   0              2560.3313      5017.6016      7577.9329      1145.437
Loop time of 2.3451 on 1 procs for 510 steps with 4720 atoms

Minimization stats:
  Stopping criterion = max force evaluations
  Energy initial, next-to-last, final =
  Force two-norm initial, final = 577.1334 36.24663
  Force max component initial, final = 137.5908 6.8412031
  Final line search alpha, max atom move = 0.0049579818 0.03391856
  Iterations, force evaluations = 510 1000

velocity all create 300 7677

timestep 1.0

fix 2 all npt temp 300.0 300.0 100.0 iso 1.0 1.0 1000.0
run 1000
Generated 15 of 15 mixed pair_coeff terms from arithmetic mixing rule
Step          Temp          E_pair         E_mol          TotEng         Press          Volume
510   300            1438.04        2036.2695      7694.2423      364.51036      512000
Loop time of 2.60519 on 1 procs for 1000 steps with 4720 atoms

unfix 2

molecule mol1 pre_stp1.mol
Read molecule template mol1:
# generated by molpy
  1 molecules
  0 fragments
  18 atoms with max type 5
  16 bonds with max type 5
  26 angles with max type 7
  36 dihedrals with max type 11
  0 impropers with max type 0
molecule mol2 post_stp1.mol
Read molecule template mol2:
# generated by molpy
  1 molecules
  0 fragments
  18 atoms with max type 5
  14 bonds with max type 5
  25 angles with max type 8
  25 dihedrals with max type 11
  0 impropers with max type 0

fix rxn all bond/react stabilization yes stab .03     react stp1 all 1 0 3.0 mol1 mol2 stp1.map
dynamic group bond_react_MASTER_group defined
dynamic group stab_REACT defined

fix stab stab_REACT npt temp 300 300 100 iso 1.0 1.0 1000

compute 1 all property/local batom1 batom2

compute cluschunk all chunk/atom molecule
fix prt0 all ave/chunk 1 1 100 cluschunk mass file mass.txt

thermo 100
thermo_style custom step temp press density f_rxn[*]

dump 1 all local 100 topo.dump c_1[1] c_1[2]
dump 2 all custom 100 traj.dump id mol type xu yu zu

run 100000

CITE-CITE-CITE-CITE-CITE-CITE-CITE-CITE-CITE-CITE-CITE-CITE-CITE

Your simulation uses code contributions which should be cited:

- fix bond/react: reacter.org doi:10.1016/j.polymer.2017.09.038, doi:10.1021/acs.macromol.0c02012, doi:10.1016/j.cpc.2024.109287

@Article{Gissinger17,
 author = {J. R. Gissinger and B. D. Jensen and K. E. Wise},
 title = {Modeling Chemical Reactions in Classical Molecular Dynamics Simulations},
 journal = {Polymer},
 year =    2017,
 volume =  128,
 pages =   {211--217}
}

@Article{Gissinger20,
 author = {J. R. Gissinger, B. D. Jensen, K. E. Wise},
 title = {{REACTER}: A Heuristic Method for Reactive Molecular Dynamics},
 journal = {Macromolecules},
 year =    2020,
 volume =  53,
 number =  22,
 pages =   {9953--9961}
}

@Article{Gissinger24,
 author = {J. R. Gissinger, B. D. Jensen, K. E. Wise},
 title = {Molecular Modeling of Reactive Systems with REACTER},
 journal = {Computer Physics Communications},
 year =    2024,
 volume =  304,
 number =  109287
}

CITE-CITE-CITE-CITE-CITE-CITE-CITE-CITE-CITE-CITE-CITE-CITE-CITE

Generated 15 of 15 mixed pair_coeff terms from arithmetic mixing rule
Step          Temp          Press         Density        f_rxn[1]
1510   291.05507     -42.671523      0.093650806    0
Averages over the last 501 of 1002 rows, steps 51600 to 101510:
Temp Press Density f_rxn[1]
300.269 -48.1175 0.87234 244.88
Loop time of 1163.14 on 1 procs for 100000 steps with 3973 atoms
